LTspice 26.0.2 for MacOS
Circuit: /Users/hugooliveiranunes/Desktop/Electrical_Engineering/LTspice_Projects/Transient_Analysis.net
Start Time: Tue Jun 23 00:20:31 2026
solver = Normal
Maximum thread count: 8
tnom = 27
temp = 27
method = trap
.OP point found by inspection.
.OP point found by inspection.
Total elapsed time: 0.053 seconds.

Files loaded:
/Users/hugooliveiranunes/Desktop/Electrical_Engineering/LTspice_Projects/Transient_Analysis.net

